LAMMPS (29 Aug 2024 - Update 1)
##########################################
# USER-SPECIFIED VARIABLES
##########################################

variable tstep               equal  0.5                                        # timestep in fs
variable run_steps           equal  10000                                      # Number of steps to run
variable temperature         equal  3000                                       # Temperature (K)
variable pressure            equal  296077                                     # Target pressure (atm)

variable io_freq             equal  100                                        # Frequency of dumping trajectory (500 steps, 250 fs)

variable data_file           string /scratch/08034/tg873340/LAMMPS_test/lammps_data_files/diamond_3.21gcc_512atoms.data.in
variable param_file          string /scratch/08034/tg873340/LAMMPS_test/chimes_parameter_files/published_params.Carbon-2.0.Small.2+3+4b.Tersoff.txt

########################################
# GENERAL CONTROLS
########################################

units           real                          # Required for CHIMES pair style
newton          on                            # Required for CHIMES pair style
atom_style      atomic                        # Required for CHIMES pair style
atom_modify     sort 0 0.0                    # Prevent sorting (to maintain 3b parent/neighbor relationships)
atom_modify     map array                     # May improve efficiency

neighbor        0.5 bin
neigh_modify    delay 0 every 1 check yes

########################################
# INITIALIZATION CONTROLS
########################################

read_data       /scratch/08034/tg873340/LAMMPS_test/lammps_data_files/diamond_3.21gcc_512atoms.data.in
Reading data file ...
  orthogonal box = (0 0 0) to (14.69002 14.69002 14.69002)
  reading atoms ...
  512 atoms
velocity        all create 3000 1234 dist gaussian mom yes rot yes loop all

########################################
# FORCE FIELD CONTROLS
########################################

pair_style      chimesFF
pair_coeff      * * /scratch/08034/tg873340/LAMMPS_test/chimes_parameter_files/published_params.Carbon-2.0.Small.2+3+4b.Tersoff.txt

########################################
# RESTART CONTROLS
########################################

restart         100 a.restart b.restart

########################################
# RUN, DUMP, AND THERMO CONTROLS
########################################

##### Set the ensemble
variable temp_damp  equal  v_tstep*100.0	# Temperature damping coefficient
variable press_damp equal  v_tstep*1000.0	# Pressure damping coefficient
fix             1 all nvt temp 3000 3000 50

##### Define thermo output
variable e_ensemble        equal f_1
variable e_conserve        equal ke+pe+v_e_ensemble
thermo_style    custom step time temp press density ke pe etotal v_e_ensemble v_e_conserve econserve
thermo_modify   line one format float %20.5f flush yes
thermo          100

##### Dump all atoms
#dump_modify     dump_1 sort id element C

##### Run the simulation

timestep        0.5
run             10000 upto

CITE-CITE-CITE-CITE-CITE-CITE-CITE-CITE-CITE-CITE-CITE-CITE-CITE

Your simulation uses code contributions which should be cited:

- Type Label Framework: https://doi.org/10.1021/acs.jpcb.3c08419

@Article{Gissinger24,
 author = {Jacob R. Gissinger, Ilia Nikiforov, Yaser Afshar, Brendon Waters, Moon-ki Choi, Daniel S. Karls, Alexander Stukowski, Wonpil Im, Hendrik Heinz, Axel Kohlmeyer, and Ellad B. Tadmor},
 title = {Type Label Framework for Bonded Force Fields in LAMMPS},
 journal = {J. Phys. Chem. B},
 year =    2024,
 volume =  128,
 number =  13,
 pages =   {3282â€“-3297}
}

CITE-CITE-CITE-CITE-CITE-CITE-CITE-CITE-CITE-CITE-CITE-CITE-CITE

Generated 0 of 0 mixed pair_coeff terms from geometric mixing rule
Step          Time           Temp          Press         Density         KinEng         PotEng         TotEng      v_e_ensemble   v_e_conserve    Econserve
0               0.00000           3000.00000        -243441.37095              3.22122           4569.58181        -106757.39823        -102187.81642              0.00000        -102187.81642        -102187.81642
Averages over the last 51 of 101 rows, steps 5000 to 10000:
Temp Press Density KinEng PotEng TotEng v_e_ensemble v_e_conserve Econserve
3034.61 -89242.6 3.22122 4622.3 -101699 -97077.1 -5101.89 -102179 -102179
Loop time of 7997.55 on 1 procs for 10000 steps with 512 atoms
