LAMMPS (29 Aug 2024 - Update 1)
#######################################################################
#######################################################################
# MD assembly simulation of OS-CG particles with alpha=4 using ChIMES model at 300 K.
#######################################################################
#######################################################################

##########################################
# USER-SPECIFIED VARIABLES
##########################################

variable dt         equal 5.0
variable Tstart     equal 300.0
variable Tstop      equal 300.0
variable Tdamp      equal 500.0
variable atmmass    equal 67256 # Must match value(s) specified in parameter file
variable uc         equal 120
variable nrepl      equal 4
variable params     string A4_params.txt
variable timesteps  equal 10000
variable iofrq      equal 1000

########################################
# GENERAL CONTROLS
########################################

units           real                          # Required for CHIMES pair style
newton          on                            # Required for CHIMES pair style
atom_style      atomic                        # Required for CHIMES pair style
atom_modify     sort 0 0.0                    # Required for CHIMES pair style
atom_modify     map array                     # Required for CHIMES pair style

neighbor        2.0 bin
neigh_modify    delay 0 every 1 check yes     # Required for CHIMES pair style

########################################
# INITIALIZATION CONTROLS - CREATE THE SYSTEM (FCC LATTICE)
######################################################

lattice             fcc 120
Lattice spacing in x,y,z = 120 120 120
region              box block 0 1 0 1 0 1 units lattice
create_box          1 box                                # use that empty cell to define simulation cell
Created orthogonal box = (0 0 0) to (120 120 120)
create_atoms        1 box                                # place atoms on lattice points
Created 4 atoms
replicate           4 4 4
Replication is creating a 4x4x4 = 64 times larger system...
  orthogonal box = (0 0 0) to (480 480 480)
  256 atoms
  replicate CPU = 0.002 seconds

mass                1 67256
velocity            all create 300 4834834 rot yes mom yes dist gaussian

########################################
# FORCE FIELD CONTROLS
########################################

pair_style          chimesFF
pair_coeff          * * A4_params.txt

########################################
# RESTART CONTROLS
########################################

# restart             10 nvt.a.restart nvt.b.restart

########################################
# RUN, DUMP, AND THERMO CONTROLS
########################################

##### Set the ensemble

variable Tdamp  equal  dt*100.0	# Temperature damping coefficient

fix                 1 all nvt temp 300 300 100

##### Define thermo output

thermo_style        custom step time ke pe temp press etotal econserve lx ly lz
thermo              1000
thermo_modify       norm yes

##### Print dump files

#dump_modify         1 element A sort id    #give element names

##### Run the simulation

timestep            5
run	                10000
Generated 0 of 0 mixed pair_coeff terms from geometric mixing rule
Step          Time          KinEng         PotEng          Temp          Press          TotEng       Econserve          Lx             Ly             Lz
0   0              0.89074988    -14.658963      300            32.985657     -13.768213     -13.768213      480            480            480
Averages over the last 6 of 11 rows, steps 5000 to 10000:
KinEng PotEng Temp Press TotEng Econserve Lx Ly Lz
0.927972 -20.8179 312.536 16.1665 -19.89 1547.26 480 480 480
Loop time of 6.47362 on 36 procs for 10000 steps with 256 atoms
