LAMMPS (29 Oct 2020)
#######################################################################
# MD assembly simulation of OS-CG particles with alpha=4 using ChIMES model at 300 K.
#######################################################################

######################################################################
# run 100_000 steps
#####################################################################
clear
variable dt         equal 5.0
variable Tstart     equal 300.0
variable Tstop      equal 300.0
variable Tdamp      equal 500.0
variable atmmass    equal 67256
variable uc         equal 120
variable nrepl      equal 4
variable timesteps  equal 100000
variable iofrq      equal 1000

####################################################################
# Specify high-level paramters
####################################################################
units		        real
atom_style	        molecular
atom_modify         sort 0 0.0                           # print out in frames in order
neighbor    	    2.0 bin                              # consider cutoff +2 as neighbor
neigh_modify	    every 1 delay 0 check yes            # every x step//no delay//check the neighbor list to see if need to update

######################################################
# Set up simulation box with particle initialized at FCC lattice
######################################################
lattice             fcc 120
Lattice spacing in x,y,z = 120.00000 120.00000 120.00000
region              box block 0 1 0 1 0 1 units lattice
create_box          1 box                                # use that empty cell to define simulation cell
Created orthogonal box = (0.0000000 0.0000000 0.0000000) to (120.00000 120.00000 120.00000)
create_atoms        1 box                                # place atoms on lattice points
Created 4 atoms
replicate           4 4 4
Replicating atoms ...
  orthogonal box = (0.0000000 0.0000000 0.0000000) to (480.00000 480.00000 480.00000)
  256 atoms
Finding 1-2 1-3 1-4 neighbors ...
     0 = max # of 1-2 neighbors
     0 = max # of 1-3 neighbors
     0 = max # of 1-4 neighbors
     1 = max # of special neighbors
  replicate CPU = 0.002 seconds

mass                1 67256
velocity            all create 300 4834834 rot yes mom yes dist gaussian

######################################################
# Define the interaction model
######################################################
pair_style          chimesFF
pair_coeff          * * A4_params.txt

timestep            5

################################################################################################################
# Specify thermodynamic constraints & output and run simulation
################################################################################################################
fix                 1 all nvt temp 300 300 500

restart             10 nvt.a.restart nvt.b.restart

thermo_style        custom step time ke pe temp press etotal f_1 lx ly lz
thermo              1000
thermo_modify       norm yes

dump                1 all custom 1000 chimes_A4.lammpstrj id type element xu yu zu fx fy fz
dump_modify         1 element A sort id    #give element names

run	                100000
  update every 1 steps, delay 0 steps, check yes
Step Time KinEng PotEng Temp Press TotEng f_1 Lx Ly Lz
0            0   0.89074988   -14.658963          300    32.985657   -13.768213            0          480          480          480
Averages over the last 51 of 101 rows, steps 50000 to 100000:
KinEng PotEng Temp Press TotEng f_1 Lx Ly Lz
1.03089 -427.186 347.199 -14.1396 -426.155 412.267 480 480 480
Loop time of 1317.98 on 1 procs for 100000 steps with 256 atoms
